
     RDKit          3D

 14 13  0  0  0  0  0  0  0  0999 V2000
   -1.4075    0.6691    0.5232 C   0  0  0  0  0  0  0  0  0  0  0  0
   -0.7565   -0.6559    0.1578 C   0  0  0  0  0  0  0  0  0  0  0  0
    0.4687   -0.5038   -0.7442 C   0  0  0  0  0  0  0  0  0  0  0  0
    1.6277    0.2182   -0.0745 C   0  0  0  0  0  0  0  0  0  0  0  0
   -2.3258    0.4919    1.0923 H   0  0  0  0  0  0  0  0  0  0  0  0
   -0.7472    1.2829    1.1430 H   0  0  0  0  0  0  0  0  0  0  0  0
   -1.6697    1.2389   -0.3738 H   0  0  0  0  0  0  0  0  0  0  0  0
   -1.4963   -1.2764   -0.3620 H   0  0  0  0  0  0  0  0  0  0  0  0
   -0.4813   -1.1915    1.0738 H   0  0  0  0  0  0  0  0  0  0  0  0
    0.8066   -1.5032   -1.0436 H   0  0  0  0  0  0  0  0  0  0  0  0
    0.1919    0.0256   -1.6634 H   0  0  0  0  0  0  0  0  0  0  0  0
    1.3785    1.2609    0.1433 H   0  0  0  0  0  0  0  0  0  0  0  0
    2.5018    0.2173   -0.7336 H   0  0  0  0  0  0  0  0  0  0  0  0
    1.9091   -0.2740    0.8617 H   0  0  0  0  0  0  0  0  0  0  0  0
  1  2  1  0
  2  3  1  0
  3  4  1  0
  1  5  1  0
  1  6  1  0
  1  7  1  0
  2  8  1  0
  2  9  1  0
  3 10  1  0
  3 11  1  0
  4 12  1  0
  4 13  1  0
  4 14  1  0
M  END
$$$$
