
     RDKit          3D

 11 10  0  0  0  0  0  0  0  0999 V2000
   -1.2666    0.1539    0.0831 C   0  0  0  0  0  0  0  0  0  0  0  0
    0.0289   -0.5437   -0.2956 C   0  0  0  0  0  0  0  0  0  0  0  0
    1.2448    0.2564    0.1400 C   0  0  0  0  0  0  0  0  0  0  0  0
   -1.3358    1.1378   -0.3918 H   0  0  0  0  0  0  0  0  0  0  0  0
   -2.1264   -0.4409   -0.2407 H   0  0  0  0  0  0  0  0  0  0  0  0
   -1.3365    0.2901    1.1671 H   0  0  0  0  0  0  0  0  0  0  0  0
    0.0595   -0.6921   -1.3808 H   0  0  0  0  0  0  0  0  0  0  0  0
    0.0588   -1.5352    0.1697 H   0  0  0  0  0  0  0  0  0  0  0  0
    1.2543    0.3959    1.2258 H   0  0  0  0  0  0  0  0  0  0  0  0
    2.1639   -0.2657   -0.1435 H   0  0  0  0  0  0  0  0  0  0  0  0
    1.2550    1.2436   -0.3331 H   0  0  0  0  0  0  0  0  0  0  0  0
  1  2  1  0
  2  3  1  0
  1  4  1  0
  1  5  1  0
  1  6  1  0
  2  7  1  0
  2  8  1  0
  3  9  1  0
  3 10  1  0
  3 11  1  0
M  END
$$$$
