
     RDKit          3D

 14 13  0  0  0  0  0  0  0  0999 V2000
   -1.8583   -0.3187    0.4552 C   0  0  0  0  0  0  0  0  0  0  0  0
   -0.6133    0.4540    0.0496 C   0  0  0  0  0  0  0  0  0  0  0  0
    0.6133   -0.4540   -0.0125 C   0  0  0  0  0  0  0  0  0  0  0  0
    1.8583    0.3187   -0.4180 C   0  0  0  0  0  0  0  0  0  0  0  0
   -1.7345   -0.7708    1.4444 H   0  0  0  0  0  0  0  0  0  0  0  0
   -2.0764   -1.1160   -0.2625 H   0  0  0  0  0  0  0  0  0  0  0  0
   -2.7238    0.3501    0.4933 H   0  0  0  0  0  0  0  0  0  0  0  0
   -0.4419    1.2632    0.7690 H   0  0  0  0  0  0  0  0  0  0  0  0
   -0.7818    0.9199   -0.9283 H   0  0  0  0  0  0  0  0  0  0  0  0
    0.7818   -0.9199    0.9654 H   0  0  0  0  0  0  0  0  0  0  0  0
    0.4419   -1.2632   -0.7319 H   0  0  0  0  0  0  0  0  0  0  0  0
    2.0764    1.1160    0.2997 H   0  0  0  0  0  0  0  0  0  0  0  0
    1.7345    0.7708   -1.4073 H   0  0  0  0  0  0  0  0  0  0  0  0
    2.7238   -0.3501   -0.4561 H   0  0  0  0  0  0  0  0  0  0  0  0
  1  2  1  0
  2  3  1  0
  3  4  1  0
  1  5  1  0
  1  6  1  0
  1  7  1  0
  2  8  1  0
  2  9  1  0
  3 10  1  0
  3 11  1  0
  4 12  1  0
  4 13  1  0
  4 14  1  0
M  END
$$$$
