
     RDKit          3D

 14 13  0  0  0  0  0  0  0  0999 V2000
   -1.5991   -0.2518   -0.4844 C   0  0  0  0  0  0  0  0  0  0  0  0
   -0.5956    0.8078   -0.0564 C   0  0  0  0  0  0  0  0  0  0  0  0
    0.8395    0.4933   -0.4800 C   0  0  0  0  0  0  0  0  0  0  0  0
    1.4125   -0.7436    0.1945 C   0  0  0  0  0  0  0  0  0  0  0  0
   -1.4186   -1.2036    0.0238 H   0  0  0  0  0  0  0  0  0  0  0  0
   -1.5548   -0.4216   -1.5648 H   0  0  0  0  0  0  0  0  0  0  0  0
   -2.6150    0.0701   -0.2336 H   0  0  0  0  0  0  0  0  0  0  0  0
   -0.6439    0.9372    1.0311 H   0  0  0  0  0  0  0  0  0  0  0  0
   -0.8881    1.7657   -0.5029 H   0  0  0  0  0  0  0  0  0  0  0  0
    0.8891    0.3708   -1.5682 H   0  0  0  0  0  0  0  0  0  0  0  0
    1.4727    1.3525   -0.2286 H   0  0  0  0  0  0  0  0  0  0  0  0
    1.3519   -0.6608    1.2842 H   0  0  0  0  0  0  0  0  0  0  0  0
    2.4658   -0.8658   -0.0777 H   0  0  0  0  0  0  0  0  0  0  0  0
    0.8836   -1.6501   -0.1142 H   0  0  0  0  0  0  0  0  0  0  0  0
  1  2  1  0
  2  3  1  0
  3  4  1  0
  1  5  1  0
  1  6  1  0
  1  7  1  0
  2  8  1  0
  2  9  1  0
  3 10  1  0
  3 11  1  0
  4 12  1  0
  4 13  1  0
  4 14  1  0
M  END
$$$$
