
     RDKit          3D

 11 10  0  0  0  0  0  0  0  0999 V2000
   -1.2678    0.0648   -0.1525 C   0  0  0  0  0  0  0  0  0  0  0  0
    0.0448    0.0824    0.6124 C   0  0  0  0  0  0  0  0  0  0  0  0
    1.2340   -0.1270   -0.3097 C   0  0  0  0  0  0  0  0  0  0  0  0
   -2.1079    0.2174    0.5323 H   0  0  0  0  0  0  0  0  0  0  0  0
   -1.2941    0.8594   -0.9050 H   0  0  0  0  0  0  0  0  0  0  0  0
   -1.4132   -0.8941   -0.6602 H   0  0  0  0  0  0  0  0  0  0  0  0
    0.1510    1.0408    1.1326 H   0  0  0  0  0  0  0  0  0  0  0  0
    0.0326   -0.7031    1.3761 H   0  0  0  0  0  0  0  0  0  0  0  0
    1.1677   -1.0919   -0.8224 H   0  0  0  0  0  0  0  0  0  0  0  0
    1.2868    0.6616   -1.0672 H   0  0  0  0  0  0  0  0  0  0  0  0
    2.1661   -0.1102    0.2636 H   0  0  0  0  0  0  0  0  0  0  0  0
  1  2  1  0
  2  3  1  0
  1  4  1  0
  1  5  1  0
  1  6  1  0
  2  7  1  0
  2  8  1  0
  3  9  1  0
  3 10  1  0
  3 11  1  0
M  END

$$$$
