
     RDKit          3D

 11 10  0  0  0  0  0  0  0  0999 V2000
    1.2150    0.2969   -0.2652 C   0  0  0  0  0  0  0  0  0  0  0  0
    0.0093    0.0269    0.6189 C   0  0  0  0  0  0  0  0  0  0  0  0
   -1.2221   -0.3172   -0.2018 C   0  0  0  0  0  0  0  0  0  0  0  0
    1.4614   -0.5807   -0.8716 H   0  0  0  0  0  0  0  0  0  0  0  0
    2.0878    0.5420    0.3480 H   0  0  0  0  0  0  0  0  0  0  0  0
    1.0264    1.1384   -0.9396 H   0  0  0  0  0  0  0  0  0  0  0  0
   -0.1971    0.9099    1.2338 H   0  0  0  0  0  0  0  0  0  0  0  0
    0.2354   -0.7998    1.3015 H   0  0  0  0  0  0  0  0  0  0  0  0
   -1.4877    0.5049   -0.8742 H   0  0  0  0  0  0  0  0  0  0  0  0
   -2.0757   -0.5071    0.4564 H   0  0  0  0  0  0  0  0  0  0  0  0
   -1.0528   -1.2141   -0.8061 H   0  0  0  0  0  0  0  0  0  0  0  0
  1  2  1  0
  2  3  1  0
  1  4  1  0
  1  5  1  0
  1  6  1  0
  2  7  1  0
  2  8  1  0
  3  9  1  0
  3 10  1  0
  3 11  1  0
M  END
