
     RDKit          3D

 11 10  0  0  0  0  0  0  0  0999 V2000
    1.2532   -0.2316   -0.1035 C   0  0  0  0  0  0  0  0  0  0  0  0
   -0.0214    0.5915   -0.1830 C   0  0  0  0  0  0  0  0  0  0  0  0
   -1.2371   -0.2148    0.2415 C   0  0  0  0  0  0  0  0  0  0  0  0
    1.1966   -1.1067   -0.7587 H   0  0  0  0  0  0  0  0  0  0  0  0
    1.4326   -0.5792    0.9190 H   0  0  0  0  0  0  0  0  0  0  0  0
    2.1132    0.3701   -0.4136 H   0  0  0  0  0  0  0  0  0  0  0  0
    0.0736    1.4739    0.4595 H   0  0  0  0  0  0  0  0  0  0  0  0
   -0.1611    0.9493   -1.2091 H   0  0  0  0  0  0  0  0  0  0  0  0
   -2.1410    0.3987    0.1758 H   0  0  0  0  0  0  0  0  0  0  0  0
   -1.3723   -1.0894   -0.4028 H   0  0  0  0  0  0  0  0  0  0  0  0
   -1.1363   -0.5619    1.2749 H   0  0  0  0  0  0  0  0  0  0  0  0
  1  2  1  0
  2  3  1  0
  1  4  1  0
  1  5  1  0
  1  6  1  0
  2  7  1  0
  2  8  1  0
  3  9  1  0
  3 10  1  0
  3 11  1  0
M  END

$$$$
