
     RDKit          3D

 11 10  0  0  0  0  0  0  0  0999 V2000
   -1.2627   -0.1481   -0.1358 C   0  0  0  0  0  0  0  0  0  0  0  0
    0.0480    0.6156   -0.0510 C   0  0  0  0  0  0  0  0  0  0  0  0
    1.2265   -0.3165    0.1743 C   0  0  0  0  0  0  0  0  0  0  0  0
   -1.2477   -0.8622   -0.9655 H   0  0  0  0  0  0  0  0  0  0  0  0
   -2.0950    0.5438   -0.2981 H   0  0  0  0  0  0  0  0  0  0  0  0
   -1.4555   -0.7005    0.7894 H   0  0  0  0  0  0  0  0  0  0  0  0
   -0.0050    1.3412    0.7682 H   0  0  0  0  0  0  0  0  0  0  0  0
    0.2016    1.1805   -0.9771 H   0  0  0  0  0  0  0  0  0  0  0  0
    1.3201   -1.0359   -0.6455 H   0  0  0  0  0  0  0  0  0  0  0  0
    1.1124   -0.8742    1.1094 H   0  0  0  0  0  0  0  0  0  0  0  0
    2.1574    0.2562    0.2318 H   0  0  0  0  0  0  0  0  0  0  0  0
  1  2  1  0
  2  3  1  0
  1  4  1  0
  1  5  1  0
  1  6  1  0
  2  7  1  0
  2  8  1  0
  3  9  1  0
  3 10  1  0
  3 11  1  0
M  END

$$$$
