
     RDKit          3D

 11 10  0  0  0  0  0  0  0  0999 V2000
    1.2410    0.0240    0.3071 C   0  0  0  0  0  0  0  0  0  0  0  0
   -0.0294   -0.5350   -0.3111 C   0  0  0  0  0  0  0  0  0  0  0  0
   -1.2188    0.3798   -0.0723 C   0  0  0  0  0  0  0  0  0  0  0  0
    1.1315    0.1415    1.3899 H   0  0  0  0  0  0  0  0  0  0  0  0
    1.4889    1.0005   -0.1211 H   0  0  0  0  0  0  0  0  0  0  0  0
    2.0819   -0.6516    0.1219 H   0  0  0  0  0  0  0  0  0  0  0  0
   -0.2379   -1.5229    0.1142 H   0  0  0  0  0  0  0  0  0  0  0  0
    0.1174   -0.6686   -1.3886 H   0  0  0  0  0  0  0  0  0  0  0  0
   -1.0486    1.3676   -0.5124 H   0  0  0  0  0  0  0  0  0  0  0  0
   -2.1202   -0.0437   -0.5262 H   0  0  0  0  0  0  0  0  0  0  0  0
   -1.4059    0.5085    0.9986 H   0  0  0  0  0  0  0  0  0  0  0  0
  1  2  1  0
  2  3  1  0
  1  4  1  0
  1  5  1  0
  1  6  1  0
  2  7  1  0
  2  8  1  0
  3  9  1  0
  3 10  1  0
  3 11  1  0
M  END
